*Heading
** Job name: single_el_001_creep_T1100 Model name: single_element_001
** Generated by: Abaqus/CAE 6.14-5
*Preprint, echo=NO, model=NO, history=NO, contact=NO
** ----------------------------------------------------------------
** 
** PART INSTANCE: plate-1
** 
*System
          1.,          0., -3.06161699786838e-16,          1.,          0.,          1.
          1.,          1., -3.06161699786838e-16
*Node
      1,           1.,           1.,           1.
      2,           1.,           0.,           1.
      3,           1.,           1.,           0.
      4,           1.,           0.,           0.
      5,           0.,           1.,           1.
      6,           0.,           0.,           1.
      7,           0.,           1.,           0.
      8,           0.,           0.,           0.
*Element, type=C3D8T
1, 5, 6, 8, 7, 1, 2, 4, 3
*Nset, nset=plate-1__PickedSet1088, generate
 1,  8,  1
*Elset, elset=plate-1__PickedSet1088
 1,
*Orientation, name=plate-1-Ori-1
1., 0., 0., 0., 1., 0.
1, 0.
** Section: Section-1
*Solid Section, elset=plate-1__PickedSet1088, orientation=plate-1-Ori-1, stack direction=1, material=UMAT
,
*System
*Nset, nset=_PickedSet310, generate
 1,  8,  1
*Elset, elset=_PickedSet310
 1,
*Nset, nset=_PickedSet311, generate
 5,  8,  1
*Elset, elset=_PickedSet311
 1,
*Nset, nset=_PickedSet312
 1, 2, 5, 6
*Elset, elset=_PickedSet312
 1,
*Nset, nset=_PickedSet313, generate
 2,  8,  2
*Elset, elset=_PickedSet313
 1,
*Nset, nset=_PickedSet315, generate
 1,  4,  1
*Elset, elset=_PickedSet315
 1,
*Amplitude, name=disp
             0.,              0.,              1.,             0.1
** 
** MATERIALS
** 
*Material, name=ELASTIC_anisotropic
*Conductivity
 20.6,
*Density
 8.34e-09,
*Elastic, type=ORTHOTROPIC
250000.,161000.,250000.,161000.,161000.,250000.,129000.,129000.
129000.,    20.
243000.,158000.,243000.,158000.,158000.,243000.,123000.,123000.
123000.,   200.
236000.,155000.,236000.,155000.,155000.,236000.,117000.,117000.
117000.,   400.
227000.,152000.,227000.,152000.,152000.,227000.,110000.,110000.
110000.,   600.
218000.,150000.,218000.,150000.,150000.,218000.,102000.,102000.
102000.,   800.
199000.,141000.,199000.,141000.,141000.,199000., 93000., 93000.
 93000.,  1000.
193000.,144000.,193000.,144000.,144000.,193000., 87000., 87000.
 87000.,  1100.
189000.,149000.,189000.,149000.,149000.,189000., 79000., 79000.
 79000.,  1200.
186000.,152000.,186000.,152000.,152000.,186000., 74000., 74000.
 74000.,  1250.
185000.,154000.,185000.,154000.,154000.,185000., 70000., 70000.
 70000.,  1280.
185000.,156000.,185000.,156000.,156000.,185000., 69000., 69000.
 69000.,  1300.
*Expansion
 1.11e-05,  20.
 1.18e-05, 100.
 1.28e-05, 200.
 1.37e-05, 300.
 1.47e-05, 400.
 1.56e-05, 500.
 1.65e-05, 600.
 1.74e-05, 700.
 1.83e-05, 800.
 1.92e-05, 900.
 2.01e-05,1000.
  2.1e-05,1100.
 2.18e-05,1200.
 2.27e-05,1300.
*Specific Heat
 5.3e+08,
*Material, name=ELASTIC_isotropic
*Conductivity
 19.4,
*Density
 8.34e-09,
*Elastic
127300., 0.389,   20.
125000., 0.391,  100.
122000., 0.394,  200.
118000., 0.395,  300.
115000., 0.395,  400.
111000., 0.395,  500.
106000., 0.396,  600.
101000., 0.398,  700.
 96000., 0.403,  800.
 90000.,  0.41,  900.
 82700.,  0.42, 1000.
 75100.,  0.43, 1100.
 67600.,  0.44, 1200.
 67600.,  0.45, 1300.
*Expansion
 1.11e-05,  20.
 1.18e-05, 100.
 1.28e-05, 200.
 1.37e-05, 300.
 1.47e-05, 400.
 1.56e-05, 500.
 1.65e-05, 600.
 1.74e-05, 700.
 1.83e-05, 800.
 1.92e-05, 900.
 2.01e-05,1000.
  2.1e-05,1100.
 2.18e-05,1200.
 2.27e-05,1300.
*Specific Heat
 5.3e+08,
*Material, name=UMAT
*Conductivity
 20.6,
*Density
 8.34e-09,
*Depvar
    126,
*Specific Heat
 5.3e+08,
*User Material, constants=10
2.,1.,0.,0.,0.,1.,0.,0.
0.,1.
*Time Points, name=in_phase_no_creep
0., 0.00666667, 0.0133333, 0.02, 0.150667, 0.412, 0.804, 1.32667
1.98, 1.984, 1.988, 1.992, 1.996, 2., 2.16667, 2.33333
2.5, 2.50667, 2.51333, 2.52, 2.65067, 2.912, 3.304, 3.82667
4.48, 4.484, 4.488, 4.492, 4.496, 4.5, 4.66667, 4.83333
5., 5.00667, 5.01333, 5.02, 5.15067, 5.412, 5.804, 6.32667
6.98, 6.984, 6.988, 6.992, 6.996, 7., 7.16667, 7.33333
7.5, 7.50667, 7.51333, 7.52, 7.65067, 7.912, 8.304, 8.82667
9.48, 9.484, 9.488, 9.492, 9.496, 9.5, 9.66667, 9.83333
10., 10.0067, 10.0133, 10.02, 10.1507, 10.412, 10.804, 11.3267
11.98, 11.984, 11.988, 11.992, 11.996, 12., 12.1667, 12.3333
12.5, 12.5067, 12.5133, 12.52, 12.6507, 12.912, 13.304, 13.8267
14.48, 14.484, 14.488, 14.492, 14.496, 14.5, 14.6667, 14.8333
15., 15.0067, 15.0133, 15.02, 15.1507, 15.412, 15.804, 16.3267
16.98, 16.984, 16.988, 16.992, 16.996, 17., 17.1667, 17.3333
17.5, 17.5067, 17.5133, 17.52, 17.6507, 17.912, 18.304, 18.8267
19.48, 19.484, 19.488, 19.492, 19.496, 19.5, 19.6667, 19.8333
20., 20.0067, 20.0133, 20.02, 20.1507, 20.412, 20.804, 21.3267
21.98, 21.984, 21.988, 21.992, 21.996, 22., 22.1667, 22.3333
22.5, 22.5067, 22.5133, 22.52, 22.6507, 22.912, 23.304, 23.8267
24.48, 24.484, 24.488, 24.492, 24.496, 24.5, 24.6667, 24.8333
** ... 20 like lines cut
** 
** PREDEFINED FIELDS
** 
** Name: Predefined Field-1   Type: Temperature
*Initial Conditions, type=TEMPERATURE
_PickedSet310, 1100.
** ----------------------------------------------------------------
** 
** STEP: Step-1
** 
*Step, name=Step-1, nlgeom=YES, inc=100000000
*Coupled Temperature-displacement, creep=none, deltmx=50.
0.001, 10., 1e-15, 0.001
** 
** BOUNDARY CONDITIONS
** 
** Name: BC-1 Type: Displacement/Rotation
*Boundary
_PickedSet311, 3, 3
** Name: BC-2 Type: Displacement/Rotation
*Boundary
_PickedSet312, 1, 1
** Name: BC-3 Type: Displacement/Rotation
*Boundary
_PickedSet313, 2, 2
** Name: BC-4 Type: Displacement/Rotation
*Boundary, user
_PickedSet315, 3, 3, 1.
** 
** OUTPUT REQUESTS
** 
*Restart, write, frequency=100
** 
** FIELD OUTPUT: F-Output-1
** 
*Output, field
*Node Output
NT, U
*Element Output, directions=YES
E, S, SDV10, SDV90, SDV91, SDV92, SDV93
SDV94, SDV95, SDV96, SDV97, SDV98, SDV99, SDV100
SDV101, SDV102, SDV103, SDV104, SDV105, SDV106, SDV107
SDV108, SDV109, SDV110, SDV111, SDV112, SDV113, SDV114
SDV115, SDV116, SDV117, SDV118, SDV119, SDV120, SDV121
SDV122, SDV123, SDV124, SDV125, SDV126
** 
** HISTORY OUTPUT: H-Output-1
** 
*Output, history
*Energy Output
ALLAE, 
*End Step
